<nodes>
    <node id="91" x="-1000.0" y="+1000.0" />
    <node id="92" x="-1000.0" y="0.0" />
    <node id="93" x="+3000.0" y="0.0" />
    <node id="911" x="+3000.0" y="+1000.0" />
    <node id="912" x="-500.0" y="0.0" />
    <node id="913" x="+2500.0" y="0.0" />
    <node id="914" x="+2500.0" y="+1000.0" />
    <node id="1" x="0.0" y="+1000.0" />
    <node id="2" x="0.0" y="0.0" />
    <node id="3" x="+1000.0" y="0.0" />
    <node id="4" x="+2000.0" y="0.0" />
    <node id="5" x="+2000.0" y="+1000.0" />
    <node id="6" x="+1000.0" y="+1000.0" />
</nodes>
