<?xml version="1.0" encoding="UTF-8"?>

<!-- generated on 2023-11-30 01:22:13 by Eclipse SUMO netedit Version 1.19.0
-->

<routes xmlns:xsi="http://www.w3.org/2001/XMLSchema-instance" xsi:noNamespaceSchemaLocation="http://sumo.dlr.de/xsd/routes_file.xsd">
    <!-- Routes -->
    <route id="r_0" edges="edge1 edge2 edge3 edge4 edge5 edge6 edge7 edge8 edge9 edge10"/>
</routes>
